<NUMBER OF ZONES> 74
<NUMBER OF NODES> 74
<FIRST THRU NODE> 1
<NUMBER OF LINKS> 258
<ORIGINAL HEADER>~	Init node	Term node	Capacity	Length	Free Flow Time	B	Power	Speed limit	Toll  Type
<END OF METADATA>


~	link_id	init_node	term_node	capacity	length	free_flow_time	b	power	speed	toll	link_type	;
	0	1	3	4938.0	16.106817	14	0.15	4	0.000000	0.000000	0	;
	1	3	1	5254.0	16.057131	14	0.15	4	0.000000	0.000000	0	;
	2	1	7	7310.0	16.058740	13	0.15	4	0.000000	0.000000	0	;
	3	7	1	7389.0	15.865263	13	0.15	4	0.000000	0.000000	0	;
	4	1	9	1164.0	17.455401	24	0.15	4	0.000000	0.000000	0	;
	5	9	1	1076.0	17.450099	24	0.15	4	0.000000	0.000000	0	;
	6	2	3	885.0	3.874725	6	0.15	4	0.000000	0.000000	0	;
	7	3	2	879.0	3.975121	6	0.15	4	0.000000	0.000000	0	;
	8	3	6	5964.0	7.587822	6	0.15	4	0.000000	0.000000	0	;
	9	6	3	6000.0	7.447450	6	0.15	4	0.000000	0.000000	0	;
	10	3	7	870.0	11.592971	20	0.15	4	0.000000	0.000000	0	;
	11	7	3	987.0	11.736039	20	0.15	4	0.000000	0.000000	0	;
	12	4	6	1397.0	3.509127	9	0.15	4	0.000000	0.000000	0	;
	13	6	4	1032.0	3.509127	9	0.15	4	0.000000	0.000000	0	;
	14	4	8	6680.0	6.269461	5	0.15	4	0.000000	0.000000	0	;
	15	8	4	6224.0	6.412615	5	0.15	4	0.000000	0.000000	0	;
	16	5	10	3970.0	10.449604	9	0.15	4	0.000000	0.000000	0	;
	17	10	5	3955.0	10.554494	8	0.15	4	0.000000	0.000000	0	;
	18	5	11	934.0	11.677805	22	0.15	4	0.000000	0.000000	0	;
	19	11	5	883.0	11.588228	22	0.15	4	0.000000	0.000000	0	;
	20	6	8	6000.0	2.959879	2	0.15	4	0.000000	0.000000	0	;
	21	8	6	6000.0	2.647408	2	0.15	4	0.000000	0.000000	0	;
	22	6	13	2232.0	11.650116	16	0.15	4	0.000000	0.000000	0	;
	23	13	6	1834.0	11.522613	16	0.15	4	0.000000	0.000000	0	;
	24	6	17	1371.0	12.288557	21	0.15	4	0.000000	0.000000	0	;
	25	17	6	1246.0	12.326099	21	0.15	4	0.000000	0.000000	0	;
	26	7	9	828.0	4.074788	6	0.15	4	0.000000	0.000000	0	;
	27	9	7	825.0	4.074788	6	0.15	4	0.000000	0.000000	0	;
	28	7	13	5920.0	6.485868	5	0.15	4	0.000000	0.000000	0	;
	29	13	7	8000.0	6.868068	5	0.15	4	0.000000	0.000000	0	;
	30	8	11	6000.0	5.919129	5	0.15	4	0.000000	0.000000	0	;
	31	11	8	6000.0	5.949186	5	0.15	4	0.000000	0.000000	0	;
	32	8	16	6442.0	12.635124	10	0.15	4	0.000000	0.000000	0	;
	33	16	8	4445.0	12.545210	10	0.15	4	0.000000	0.000000	0	;
	34	9	12	974.0	5.229189	8	0.15	4	0.000000	0.000000	0	;
	35	12	9	971.0	5.395143	8	0.15	4	0.000000	0.000000	0	;
	36	9	13	875.0	2.987829	3	0.15	4	0.000000	0.000000	0	;
	37	13	9	875.0	3.036319	3	0.15	4	0.000000	0.000000	0	;
	38	10	11	8000.0	1.839467	1	0.15	4	0.000000	0.000000	0	;
	39	11	10	8000.0	1.804264	1	0.15	4	0.000000	0.000000	0	;
	40	10	18	3900.0	10.528474	9	0.15	4	0.000000	0.000000	0	;
	41	18	10	2914.0	10.484211	8	0.15	4	0.000000	0.000000	0	;
	42	10	20	5719.0	11.754735	10	0.15	4	0.000000	0.000000	0	;
	43	20	10	6009.0	11.782103	10	0.15	4	0.000000	0.000000	0	;
	44	11	19	1124.0	12.511216	22	0.15	4	0.000000	0.000000	0	;
	45	19	11	1618.0	12.212523	22	0.15	4	0.000000	0.000000	0	;
	46	13	14	4394.0	8.285083	8	0.15	4	0.000000	0.000000	0	;
	47	14	13	4320.0	7.525413	7	0.15	4	0.000000	0.000000	0	;
	48	13	15	1911.0	8.419362	17	0.15	4	0.000000	0.000000	0	;
	49	15	13	2864.0	8.467007	17	0.15	4	0.000000	0.000000	0	;
	50	14	17	5946.0	6.761203	6	0.15	4	0.000000	0.000000	0	;
	51	17	14	4904.0	6.898849	6	0.15	4	0.000000	0.000000	0	;
	52	14	22	2840.0	8.568056	9	0.15	4	0.000000	0.000000	0	;
	53	22	14	2896.0	8.369572	8	0.15	4	0.000000	0.000000	0	;
	54	16	17	6321.0	1.349797	1	0.15	4	0.000000	0.000000	0	;
	55	17	16	4209.0	1.357842	1	0.15	4	0.000000	0.000000	0	;
	56	16	19	6703.0	4.582719	4	0.15	4	0.000000	0.000000	0	;
	57	19	16	7034.0	4.452518	4	0.15	4	0.000000	0.000000	0	;
	58	16	22	4470.0	3.367288	2	0.15	4	0.000000	0.000000	0	;
	59	22	16	7628.0	3.429105	2	0.15	4	0.000000	0.000000	0	;
	60	17	22	1886.0	5.321009	10	0.15	4	0.000000	0.000000	0	;
	61	22	17	1884.0	5.315025	10	0.15	4	0.000000	0.000000	0	;
	62	18	19	6192.0	2.349796	2	0.15	4	0.000000	0.000000	0	;
	63	19	18	6293.0	3.548771	3	0.15	4	0.000000	0.000000	0	;
	64	18	21	8000.0	5.453573	4	0.15	4	0.000000	0.000000	0	;
	65	21	18	5450.0	5.457316	4	0.15	4	0.000000	0.000000	0	;
	66	19	22	2023.0	5.818844	10	0.15	4	0.000000	0.000000	0	;
	67	22	19	1606.0	5.791542	10	0.15	4	0.000000	0.000000	0	;
	68	20	21	2645.0	16.461817	17	0.15	4	0.000000	0.000000	0	;
	69	21	20	2416.0	15.442909	16	0.15	4	0.000000	0.000000	0	;
	70	20	30	6000.0	13.283225	11	0.15	4	0.000000	0.000000	0	;
	71	30	20	6000.0	13.295710	11	0.15	4	0.000000	0.000000	0	;
	72	20	58	2479.0	12.263938	11	0.15	4	0.000000	0.000000	0	;
	73	58	20	2630.0	12.556028	11	0.15	4	0.000000	0.000000	0	;
	74	21	22	4494.0	6.798869	6	0.15	4	0.000000	0.000000	0	;
	75	22	21	4496.0	6.721773	6	0.15	4	0.000000	0.000000	0	;
	76	21	23	8000.0	4.525775	4	0.15	4	0.000000	0.000000	0	;
	77	23	21	8000.0	4.543421	3	0.15	4	0.000000	0.000000	0	;
	78	22	23	878.0	4.583763	10	0.15	4	0.000000	0.000000	0	;
	79	23	22	960.0	4.508858	10	0.15	4	0.000000	0.000000	0	;
	80	22	25	2853.0	8.906273	12	0.15	4	0.000000	0.000000	0	;
	81	25	22	1507.0	8.306624	11	0.15	4	0.000000	0.000000	0	;
	82	22	28	2080.0	8.608119	15	0.15	4	0.000000	0.000000	0	;
	83	28	22	2102.0	8.599900	15	0.15	4	0.000000	0.000000	0	;
	84	22	29	5880.0	5.869561	5	0.15	4	0.000000	0.000000	0	;
	85	29	22	1424.0	5.650089	5	0.15	4	0.000000	0.000000	0	;
	86	22	40	2211.0	12.222220	27	0.15	4	0.000000	0.000000	0	;
	87	40	22	1664.0	11.916418	26	0.15	4	0.000000	0.000000	0	;
	88	23	24	8000.0	2.436260	2	0.15	4	0.000000	0.000000	0	;
	89	24	23	8000.0	2.403902	2	0.15	4	0.000000	0.000000	0	;
	90	23	31	1139.0	16.652993	27	0.15	4	0.000000	0.000000	0	;
	91	31	23	904.0	16.799920	28	0.15	4	0.000000	0.000000	0	;
	92	24	25	4500.0	1.687604	1	0.15	4	0.000000	0.000000	0	;
	93	25	24	3600.0	1.678461	1	0.15	4	0.000000	0.000000	0	;
	94	24	26	7980.0	1.645865	1	0.15	4	0.000000	0.000000	0	;
	95	26	24	8000.0	1.061605	0	0.15	4	0.000000	0.000000	0	;
	96	24	33	3559.0	11.986122	10	0.15	4	0.000000	0.000000	0	;
	97	33	24	5556.0	11.945303	10	0.15	4	0.000000	0.000000	0	;
	98	25	26	1750.0	1.928320	3	0.15	4	0.000000	0.000000	0	;
	99	26	25	2373.0	1.812974	3	0.15	4	0.000000	0.000000	0	;
	100	26	27	1317.0	1.569673	3	0.15	4	0.000000	0.000000	0	;
	101	27	26	985.0	1.572847	3	0.15	4	0.000000	0.000000	0	;
	102	26	28	7731.0	1.792193	1	0.15	4	0.000000	0.000000	0	;
	103	28	26	8332.0	1.545397	1	0.15	4	0.000000	0.000000	0	;
	104	27	28	2021.0	2.382525	2	0.15	4	0.000000	0.000000	0	;
	105	28	27	1906.0	2.307315	2	0.15	4	0.000000	0.000000	0	;
	106	27	33	2656.0	10.419637	13	0.15	4	0.000000	0.000000	0	;
	107	33	27	2787.0	10.605612	14	0.15	4	0.000000	0.000000	0	;
	108	27	35	1139.0	17.006678	27	0.15	4	0.000000	0.000000	0	;
	109	35	27	1388.0	17.005568	27	0.15	4	0.000000	0.000000	0	;
	110	28	37	6459.0	7.738237	6	0.15	4	0.000000	0.000000	0	;
	111	37	28	7118.0	8.018881	7	0.15	4	0.000000	0.000000	0	;
	112	29	41	4267.0	4.915497	4	0.15	4	0.000000	0.000000	0	;
	113	41	29	6304.0	5.233682	5	0.15	4	0.000000	0.000000	0	;
	114	29	49	1060.0	32.389346	51	0.15	4	0.000000	0.000000	0	;
	115	49	29	1118.0	32.299122	52	0.15	4	0.000000	0.000000	0	;
	116	30	31	6000.0	2.321757	1	0.15	4	0.000000	0.000000	0	;
	117	31	30	6000.0	2.266330	1	0.15	4	0.000000	0.000000	0	;
	118	30	60	4883.0	7.996646	6	0.15	4	0.000000	0.000000	0	;
	119	60	30	4803.0	8.006117	7	0.15	4	0.000000	0.000000	0	;
	120	31	32	6000.0	4.247237	3	0.15	4	0.000000	0.000000	0	;
	121	32	31	5459.0	4.232368	3	0.15	4	0.000000	0.000000	0	;
	122	31	60	966.0	6.729821	10	0.15	4	0.000000	0.000000	0	;
	123	60	31	1055.0	6.734278	10	0.15	4	0.000000	0.000000	0	;
	124	32	33	2424.0	4.981080	5	0.15	4	0.000000	0.000000	0	;
	125	33	32	2622.0	4.952494	5	0.15	4	0.000000	0.000000	0	;
	126	32	34	2987.0	1.806379	1	0.15	4	0.000000	0.000000	0	;
	127	34	32	4790.0	1.888502	1	0.15	4	0.000000	0.000000	0	;
	128	32	60	2599.0	5.513571	6	0.15	4	0.000000	0.000000	0	;
	129	60	32	2615.0	5.443441	6	0.15	4	0.000000	0.000000	0	;
	130	33	34	5444.0	4.951073	4	0.15	4	0.000000	0.000000	0	;
	131	34	33	5400.0	4.890894	4	0.15	4	0.000000	0.000000	0	;
	132	34	35	5471.0	9.338509	7	0.15	4	0.000000	0.000000	0	;
	133	35	34	6000.0	9.213129	7	0.15	4	0.000000	0.000000	0	;
	134	34	60	5899.0	10.077606	8	0.15	4	0.000000	0.000000	0	;
	135	60	34	5784.0	14.807024	12	0.15	4	0.000000	0.000000	0	;
	136	35	36	5277.0	6.580945	5	0.15	4	0.000000	0.000000	0	;
	137	36	35	6000.0	6.854679	5	0.15	4	0.000000	0.000000	0	;
	138	35	71	1957.0	3.665728	7	0.15	4	0.000000	0.000000	0	;
	139	71	35	1576.0	3.666941	7	0.15	4	0.000000	0.000000	0	;
	140	36	43	875.0	8.551889	14	0.15	4	0.000000	0.000000	0	;
	141	43	36	875.0	8.474892	13	0.15	4	0.000000	0.000000	0	;
	142	36	44	6000.0	8.148498	6	0.15	4	0.000000	0.000000	0	;
	143	44	36	5867.0	7.709684	6	0.15	4	0.000000	0.000000	0	;
	144	36	71	1058.0	7.348533	12	0.15	4	0.000000	0.000000	0	;
	145	71	36	1017.0	7.337551	12	0.15	4	0.000000	0.000000	0	;
	146	37	38	5816.0	3.188718	2	0.15	4	0.000000	0.000000	0	;
	147	38	37	5772.0	3.529509	3	0.15	4	0.000000	0.000000	0	;
	148	37	42	1816.0	7.634186	10	0.15	4	0.000000	0.000000	0	;
	149	42	37	1809.0	7.710594	10	0.15	4	0.000000	0.000000	0	;
	150	38	39	5733.0	3.167668	2	0.15	4	0.000000	0.000000	0	;
	151	39	38	6422.0	3.103793	2	0.15	4	0.000000	0.000000	0	;
	152	38	42	6000.0	6.153280	5	0.15	4	0.000000	0.000000	0	;
	153	42	38	5748.0	6.951621	6	0.15	4	0.000000	0.000000	0	;
	154	39	40	7532.0	1.292279	1	0.15	4	0.000000	0.000000	0	;
	155	40	39	8352.0	1.307139	1	0.15	4	0.000000	0.000000	0	;
	156	39	48	4371.0	17.539958	14	0.15	4	0.000000	0.000000	0	;
	157	48	39	5234.0	18.147037	15	0.15	4	0.000000	0.000000	0	;
	158	40	41	6102.0	3.486548	3	0.15	4	0.000000	0.000000	0	;
	159	41	40	6006.0	3.224867	2	0.15	4	0.000000	0.000000	0	;
	160	40	48	1003.0	21.899350	37	0.15	4	0.000000	0.000000	0	;
	161	48	40	1689.0	21.947445	38	0.15	4	0.000000	0.000000	0	;
	162	41	49	2189.0	32.819901	34	0.15	4	0.000000	0.000000	0	;
	163	49	41	2460.0	32.924690	34	0.15	4	0.000000	0.000000	0	;
	164	42	43	1519.0	3.965880	4	0.15	4	0.000000	0.000000	0	;
	165	43	42	1922.0	3.971168	5	0.15	4	0.000000	0.000000	0	;
	166	42	45	6000.0	6.062719	5	0.15	4	0.000000	0.000000	0	;
	167	45	42	6000.0	6.256131	5	0.15	4	0.000000	0.000000	0	;
	168	43	44	1750.0	3.491125	3	0.15	4	0.000000	0.000000	0	;
	169	44	43	1764.0	3.564476	4	0.15	4	0.000000	0.000000	0	;
	170	43	45	1829.0	4.080103	6	0.15	4	0.000000	0.000000	0	;
	171	45	43	1214.0	4.141357	6	0.15	4	0.000000	0.000000	0	;
	172	44	46	6000.0	3.243509	2	0.15	4	0.000000	0.000000	0	;
	173	46	44	6000.0	3.245762	2	0.15	4	0.000000	0.000000	0	;
	174	44	54	1745.0	10.076888	15	0.15	4	0.000000	0.000000	0	;
	175	54	44	1861.0	10.014430	15	0.15	4	0.000000	0.000000	0	;
	176	45	46	6000.0	1.889485	1	0.15	4	0.000000	0.000000	0	;
	177	46	45	4768.0	1.960857	1	0.15	4	0.000000	0.000000	0	;
	178	45	47	2463.0	3.422107	4	0.15	4	0.000000	0.000000	0	;
	179	47	45	2263.0	3.687148	4	0.15	4	0.000000	0.000000	0	;
	180	46	47	6000.0	2.860027	2	0.15	4	0.000000	0.000000	0	;
	181	47	46	4075.0	2.870560	2	0.15	4	0.000000	0.000000	0	;
	182	46	54	5973.0	11.279298	9	0.15	4	0.000000	0.000000	0	;
	183	54	46	5780.0	11.207469	9	0.15	4	0.000000	0.000000	0	;
	184	47	48	1285.0	10.530470	16	0.15	4	0.000000	0.000000	0	;
	185	48	47	825.0	10.299169	16	0.15	4	0.000000	0.000000	0	;
	186	47	74	6000.0	5.726137	4	0.15	4	0.000000	0.000000	0	;
	187	74	47	3317.0	5.749452	4	0.15	4	0.000000	0.000000	0	;
	188	48	49	2121.0	14.622122	14	0.15	4	0.000000	0.000000	0	;
	189	49	48	2064.0	14.619950	14	0.15	4	0.000000	0.000000	0	;
	190	48	51	2121.0	29.323021	34	0.15	4	0.000000	0.000000	0	;
	191	51	48	2173.0	29.502822	34	0.15	4	0.000000	0.000000	0	;
	192	48	52	1884.0	16.882700	14	0.15	4	0.000000	0.000000	0	;
	193	52	48	2415.0	17.008577	14	0.15	4	0.000000	0.000000	0	;
	194	48	53	2165.0	14.062639	12	0.15	4	0.000000	0.000000	0	;
	195	53	48	2000.0	14.187330	12	0.15	4	0.000000	0.000000	0	;
	196	48	54	1893.0	15.006140	21	0.15	4	0.000000	0.000000	0	;
	197	54	48	1756.0	15.083883	21	0.15	4	0.000000	0.000000	0	;
	198	48	74	6000.0	8.050591	6	0.15	4	0.000000	0.000000	0	;
	199	74	48	6000.0	7.025985	5	0.15	4	0.000000	0.000000	0	;
	200	49	50	2664.0	13.039072	11	0.15	4	0.000000	0.000000	0	;
	201	50	49	2928.0	13.189106	11	0.15	4	0.000000	0.000000	0	;
	202	49	73	826.0	8.533461	14	0.15	4	0.000000	0.000000	0	;
	203	73	49	825.0	8.539432	15	0.15	4	0.000000	0.000000	0	;
	204	50	51	2000.0	15.449374	17	0.15	4	0.000000	0.000000	0	;
	205	51	50	2000.0	16.020354	17	0.15	4	0.000000	0.000000	0	;
	206	50	73	825.0	8.473072	12	0.15	4	0.000000	0.000000	0	;
	207	73	50	825.0	8.473072	12	0.15	4	0.000000	0.000000	0	;
	208	51	52	2000.0	14.949057	12	0.15	4	0.000000	0.000000	0	;
	209	52	51	2000.0	14.931071	12	0.15	4	0.000000	0.000000	0	;
	210	52	53	2000.0	8.710908	7	0.15	4	0.000000	0.000000	0	;
	211	53	52	2000.0	8.791252	7	0.15	4	0.000000	0.000000	0	;
	212	53	54	2000.0	13.929966	12	0.15	4	0.000000	0.000000	0	;
	213	54	53	2000.0	13.938593	12	0.15	4	0.000000	0.000000	0	;
	214	55	57	2000.0	9.342478	11	0.15	4	0.000000	0.000000	0	;
	215	57	55	2000.0	9.139465	10	0.15	4	0.000000	0.000000	0	;
	216	56	57	2000.0	10.255872	9	0.15	4	0.000000	0.000000	0	;
	217	57	56	2000.0	10.442469	9	0.15	4	0.000000	0.000000	0	;
	218	57	58	2000.0	10.358965	9	0.15	4	0.000000	0.000000	0	;
	219	58	57	2000.0	10.189568	9	0.15	4	0.000000	0.000000	0	;
	220	57	59	2000.0	11.360160	15	0.15	4	0.000000	0.000000	0	;
	221	59	57	2000.0	11.354891	15	0.15	4	0.000000	0.000000	0	;
	222	58	59	2000.0	9.144294	7	0.15	4	0.000000	0.000000	0	;
	223	59	58	2000.0	9.303475	8	0.15	4	0.000000	0.000000	0	;
	224	59	60	2000.0	8.141116	7	0.15	4	0.000000	0.000000	0	;
	225	60	59	2000.0	8.495865	7	0.15	4	0.000000	0.000000	0	;
	226	59	72	2000.0	3.113282	4	0.15	4	0.000000	0.000000	0	;
	227	72	59	2000.0	3.106375	4	0.15	4	0.000000	0.000000	0	;
	228	60	61	2000.0	24.836979	38	0.15	4	0.000000	0.000000	0	;
	229	61	60	2000.0	24.834966	38	0.15	4	0.000000	0.000000	0	;
	230	60	63	2000.0	9.667444	8	0.15	4	0.000000	0.000000	0	;
	231	63	60	2000.0	9.769817	8	0.15	4	0.000000	0.000000	0	;
	232	60	65	2000.0	11.630476	14	0.15	4	0.000000	0.000000	0	;
	233	65	60	2000.0	11.588988	14	0.15	4	0.000000	0.000000	0	;
	234	60	67	2000.0	8.630658	7	0.15	4	0.000000	0.000000	0	;
	235	67	60	2000.0	8.971461	7	0.15	4	0.000000	0.000000	0	;
	236	60	69	2076.0	12.157808	11	0.15	4	0.000000	0.000000	0	;
	237	69	60	2333.0	11.789682	10	0.15	4	0.000000	0.000000	0	;
	238	60	71	1400.0	12.851941	20	0.15	4	0.000000	0.000000	0	;
	239	71	60	1400.0	12.851941	20	0.15	4	0.000000	0.000000	0	;
	240	60	72	2000.0	4.619147	6	0.15	4	0.000000	0.000000	0	;
	241	72	60	2000.0	4.619147	6	0.15	4	0.000000	0.000000	0	;
	242	62	63	2000.0	3.711357	3	0.15	4	0.000000	0.000000	0	;
	243	63	62	2000.0	4.075201	3	0.15	4	0.000000	0.000000	0	;
	244	63	65	2000.0	1.377317	1	0.15	4	0.000000	0.000000	0	;
	245	65	63	2000.0	1.512241	1	0.15	4	0.000000	0.000000	0	;
	246	64	65	2000.0	3.254047	4	0.15	4	0.000000	0.000000	0	;
	247	65	64	2000.0	3.077846	5	0.15	4	0.000000	0.000000	0	;
	248	65	66	2000.0	6.352585	5	0.15	4	0.000000	0.000000	0	;
	249	66	65	2000.0	6.913756	5	0.15	4	0.000000	0.000000	0	;
	250	67	68	2000.0	2.647231	2	0.15	4	0.000000	0.000000	0	;
	251	68	67	2000.0	2.867757	2	0.15	4	0.000000	0.000000	0	;
	252	67	69	2000.0	11.765242	16	0.15	4	0.000000	0.000000	0	;
	253	69	67	2000.0	11.765242	16	0.15	4	0.000000	0.000000	0	;
	254	69	70	3179.0	5.334022	4	0.15	4	0.000000	0.000000	0	;
	255	70	69	2920.0	5.893052	4	0.15	4	0.000000	0.000000	0	;
	256	69	71	875.0	8.992124	13	0.15	4	0.000000	0.000000	0	;
	257	71	69	1145.0	8.985699	14	0.15	4	0.000000	0.000000	0	;
