<NUMBER OF ZONES> 0
<NUMBER OF NODES> 25
<FIRST THRU NODE> 1
<NUMBER OF LINKS> 40
<ORIGINAL HEADER>~ 	Init node 	Term node 	Capacity 	Length 	Free Flow Time 	B 	Power 	Speed limit 	Toll 	Type 	;
<END OF METADATA>


~ 	init_node	term_node	capacity	length	free_flow_time	b	power	speed	toll	link_type	;
	1	2	2000	40	0.6	0.15	4	60	0	0	;
	1	6	2000	40	0.6	0.15	4	60	0	0	;
	6	1	2000	40	0.6	0.15	4	60	0	0	;
	3	2	2000	40	0.6	0.15	4	60	0	0	;
	2	7	2000	40	0.6	0.15	4	60	0	0	;
	7	2	2000	40	0.6	0.15	4	60	0	0	;
	4	3	2000	40	0.6	0.15	4	60	0	0	;
	3	8	2000	40	0.6	0.15	4	60	0	0	;
	8	3	2000	40	0.6	0.15	4	60	0	0	;
	5	4	2000	40	0.6	0.15	4	60	0	0	;
	4	9	2000	40	0.6	0.15	4	60	0	0	;
	5	10	2000	40	0.6	0.15	4	60	0	0	;
	10	5	2000	40	0.6	0.15	4	60	0	0	;
	7	6	2000	40	0.6	0.15	4	60	0	0	;
	6	11	2000	40	0.6	0.15	4	60	0	0	;
	7	8	2000	40	0.6	0.15	4	60	0	0	;
	8	7	2000	40	0.6	0.15	4	60	0	0	;
	7	12	2000	40	0.6	0.15	4	60	0	0	;
	8	9	2000	40	0.6	0.15	4	60	0	0	;
	9	8	2000	40	0.6	0.15	4	60	0	0	;
	8	13	2000	40	0.6	0.15	4	60	0	0	;
	13	8	2000	40	0.6	0.15	4	60	0	0	;
	10	9	2000	40	0.6	0.15	4	60	0	0	;
	9	14	2000	40	0.6	0.15	4	60	0	0	;
	14	9	2000	40	0.6	0.15	4	60	0	0	;
	15	10	2000	40	0.6	0.15	4	60	0	0	;
	11	12	2000	40	0.6	0.15	4	60	0	0	;
	12	11	2000	40	0.6	0.15	4	60	0	0	;
	11	16	2000	40	0.6	0.15	4	60	0	0	;
	16	11	2000	40	0.6	0.15	4	60	0	0	;
	12	13	2000	40	0.6	0.15	4	60	0	0	;
	13	12	2000	40	0.6	0.15	4	60	0	0	;
	12	17	2000	40	0.6	0.15	4	60	0	0	;
	17	12	2000	40	0.6	0.15	4	60	0	0	;
	13	14	2000	40	0.6	0.15	4	60	0	0	;
	14	13	2000	40	0.6	0.15	4	60	0	0	;
	13	18	2000	40	0.6	0.15	4	60	0	0	;
	18	13	2000	40	0.6	0.15	4	60	0	0	;
	14	15	2000	40	0.6	0.15	4	60	0	0	;
	15	14	2000	40	0.6	0.15	4	60	0	0	;
	14	19	2000	40	0.6	0.15	4	60	0	0	;
	19	14	2000	40	0.6	0.15	4	60	0	0	;
	15	20	2000	40	0.6	0.15	4	60	0	0	;
	20	15	2000	40	0.6	0.15	4	60	0	0	;
	16	17	2000	40	0.6	0.15	4	60	0	0	;
	17	16	2000	40	0.6	0.15	4	60	0	0	;
	16	21	2000	40	0.6	0.15	4	60	0	0	;
	21	16	2000	40	0.6	0.15	4	60	0	0	;
	17	18	2000	40	0.6	0.15	4	60	0	0	;
	18	17	2000	40	0.6	0.15	4	60	0	0	;
	17	22	2000	40	0.6	0.15	4	60	0	0	;
	22	17	2000	40	0.6	0.15	4	60	0	0	;
	18	19	2000	40	0.6	0.15	4	60	0	0	;
	19	18	2000	40	0.6	0.15	4	60	0	0	;
	18	23	2000	40	0.6	0.15	4	60	0	0	;
	23	18	2000	40	0.6	0.15	4	60	0	0	;
	19	20	2000	40	0.6	0.15	4	60	0	0	;
	20	19	2000	40	0.6	0.15	4	60	0	0	;
	19	24	2000	40	0.6	0.15	4	60	0	0	;
	24	19	2000	40	0.6	0.15	4	60	0	0	;
	20	25	2000	40	0.6	0.15	4	60	0	0	;
	25	20	2000	40	0.6	0.15	4	60	0	0	;
	21	22	2000	40	0.6	0.15	4	60	0	0	;
	22	21	2000	40	0.6	0.15	4	60	0	0	;
	22	23	2000	40	0.6	0.15	4	60	0	0	;
	23	22	2000	40	0.6	0.15	4	60	0	0	;
	23	24	2000	40	0.6	0.15	4	60	0	0	;
	24	23	2000	40	0.6	0.15	4	60	0	0	;
	24	25	2000	40	0.6	0.15	4	60	0	0	;
	25	24	2000	40	0.6	0.15	4	60	0	0	;
