<NUMBER OF ZONES> 0
<NUMBER OF NODES> 25
<FIRST THRU NODE> 1
<NUMBER OF LINKS> 80
<ORIGINAL HEADER>~ 	Init node 	Term node 	Capacity 	Length 	Free Flow Time 	B 	Power 	Speed limit 	Toll 	Type 	;
<END OF METADATA>


~ 	link_id	init_node	term_node	capacity	length	free_flow_time	b	power	speed	toll	link_type	;
	0	1	2	1879	33	1.0	0.15	4	70	0	0	;
	1	1	6	1973	27	0.7	0.15	4	100	0	0	;
	3	2	3	1152	35	0.8	0.15	4	70	0	0	;
	4	2	7	1798	38	0.6	0.15	4	60	0	0	;
	5	3	2	1664	38	0.6	0.15	4	60	0	0	;
	6	3	4	1306	29	1.0	0.15	4	100	0	0	;
	7	3	8	1765	34	0.6	0.15	4	70	0	0	;
	9	4	5	1852	30	0.6	0.15	4	70	0	0	;
	10	4	9	1838	33	0.8	0.15	4	60	0	0	;
	11	5	4	1260	29	0.7	0.15	4	100	0	0	;
	12	5	10	1932	37	1.0	0.15	4	60	0	0	;
	13	6	1	1594	25	0.9	0.15	4	60	0	0	;
	15	6	11	1321	22	0.9	0.15	4	90	0	0	;
	16	7	2	1433	37	0.5	0.15	4	60	0	0	;
	17	7	6	1426	27	0.8	0.15	4	100	0	0	;
	18	7	8	1549	35	1.0	0.15	4	90	0	0	;
	20	8	3	1355	23	0.5	0.15	4	60	0	0	;
	21	8	7	1151	35	0.9	0.15	4	60	0	0	;
	22	8	9	1143	34	0.8	0.15	4	60	0	0	;
	23	8	13	1876	26	0.6	0.15	4	90	0	0	;
	24	9	4	1355	29	1.0	0.15	4	90	0	0	;
	25	9	8	1596	34	0.8	0.15	4	60	0	0	;
	27	9	14	1259	33	0.5	0.15	4	90	0	0	;
	28	10	5	1277	33	0.6	0.15	4	60	0	0	;
	29	10	9	1393	26	0.9	0.15	4	90	0	0	;
	30	10	15	1219	20	0.7	0.15	4	70	0	0	;
	31	11	6	1038	24	0.8	0.15	4	80	0	0	;
	32	11	12	1791	32	1.0	0.15	4	60	0	0	;
	33	11	16	1355	35	0.8	0.15	4	100	0	0	;
	34	12	7	1863	31	0.9	0.15	4	80	0	0	;
	35	12	11	1372	39	0.9	0.15	4	80	0	0	;
	36	12	13	1274	26	0.7	0.15	4	100	0	0	;
	37	12	17	1435	28	0.6	0.15	4	80	0	0	;
	38	13	8	1716	38	0.9	0.15	4	70	0	0	;
	39	13	12	1992	37	0.9	0.15	4	90	0	0	;
	40	13	14	1080	38	0.5	0.15	4	80	0	0	;
	41	13	18	1782	23	0.8	0.15	4	100	0	0	;
	42	14	9	1844	40	0.9	0.15	4	60	0	0	;
	43	14	13	1279	40	0.9	0.15	4	100	0	0	;
	44	14	15	1358	29	0.7	0.15	4	100	0	0	;
	45	14	19	1713	35	0.8	0.15	4	90	0	0	;
	46	15	10	1823	26	0.6	0.15	4	70	0	0	;
	47	15	14	1983	28	0.8	0.15	4	80	0	0	;
	48	15	20	1214	26	0.7	0.15	4	80	0	0	;
	49	16	11	1528	28	0.9	0.15	4	60	0	0	;
	50	16	17	1058	27	0.9	0.15	4	60	0	0	;
	51	16	21	1536	32	0.6	0.15	4	70	0	0	;
	52	17	12	1868	39	0.9	0.15	4	90	0	0	;
	53	17	16	1692	23	0.6	0.15	4	90	0	0	;
	54	17	18	1831	39	0.8	0.15	4	90	0	0	;
	55	17	22	1518	22	1.0	0.15	4	70	0	0	;
	56	18	13	1408	26	0.8	0.15	4	100	0	0	;
	57	18	17	1210	28	0.5	0.15	4	100	0	0	;
	58	18	19	1598	33	0.6	0.15	4	70	0	0	;
	59	18	23	1640	32	0.7	0.15	4	60	0	0	;
	60	19	14	1817	35	0.7	0.15	4	90	0	0	;
	61	19	18	1475	31	0.6	0.15	4	60	0	0	;
	62	19	20	1015	33	0.7	0.15	4	60	0	0	;
	63	19	24	1628	33	1.0	0.15	4	100	0	0	;
	64	20	15	1344	33	0.8	0.15	4	100	0	0	;
	65	20	19	1286	28	0.6	0.15	4	100	0	0	;
	66	20	25	1529	39	1.0	0.15	4	80	0	0	;
	67	21	16	1578	36	0.6	0.15	4	60	0	0	;
	68	21	22	1869	31	0.7	0.15	4	100	0	0	;
	69	22	17	1981	34	1.0	0.15	4	90	0	0	;
	70	22	21	1715	24	0.9	0.15	4	80	0	0	;
	71	22	23	1099	31	0.5	0.15	4	100	0	0	;
	72	23	18	1245	24	0.8	0.15	4	90	0	0	;
	73	23	22	1886	30	1.0	0.15	4	90	0	0	;
	74	23	24	1963	21	0.6	0.15	4	80	0	0	;
	75	24	19	1777	38	0.8	0.15	4	90	0	0	;
	76	24	23	1967	28	0.7	0.15	4	100	0	0	;
	77	24	25	1736	20	0.9	0.15	4	70	0	0	;
	78	25	20	1340	36	0.8	0.15	4	90	0	0	;
	79	25	24	1725	33	1.0	0.15	4	100	0	0	;
