<NUMBER OF ZONES> 0
<NUMBER OF NODES> 25
<FIRST THRU NODE> 1
<NUMBER OF LINKS> 80
<ORIGINAL HEADER>~ 	Init node 	Term node 	Capacity 	Length 	Free Flow Time 	B 	Power 	Speed limit 	Toll 	Type 	;
<END OF METADATA>


~ 	link_id	init_node	term_node	capacity	length	free_flow_time	b	power	speed	toll	link_type	;
	0	1	2	1185	34	1.0	0.15	4	70	0	0	;
	1	1	6	1673	38	0.6	0.15	4	80	0	0	;
	2	2	1	1250	25	0.7	0.15	4	90	0	0	;
	3	2	3	1473	36	0.9	0.15	4	70	0	0	;
	4	2	7	1123	38	0.6	0.15	4	80	0	0	;
	5	3	2	1493	38	1.0	0.15	4	100	0	0	;
	6	3	4	1962	20	1.0	0.15	4	70	0	0	;
	7	3	8	1921	24	0.5	0.15	4	100	0	0	;
	8	4	3	1439	40	0.9	0.15	4	60	0	0	;
	9	4	5	1588	22	0.9	0.15	4	100	0	0	;
	10	4	9	1311	36	1.0	0.15	4	80	0	0	;
	11	5	4	1479	38	0.9	0.15	4	80	0	0	;
	12	5	10	1910	32	0.8	0.15	4	60	0	0	;
	13	6	1	1529	25	0.6	0.15	4	70	0	0	;
	14	6	7	1132	40	0.7	0.15	4	100	0	0	;
	15	6	11	1729	30	0.8	0.15	4	90	0	0	;
	16	7	2	1599	40	0.8	0.15	4	90	0	0	;
	17	7	6	1015	36	0.8	0.15	4	90	0	0	;
	18	7	8	1033	29	1.0	0.15	4	70	0	0	;
	19	7	12	1738	28	0.9	0.15	4	70	0	0	;
	20	8	3	1564	23	0.9	0.15	4	90	0	0	;
	21	8	7	1911	24	0.9	0.15	4	80	0	0	;
	22	8	9	1614	40	0.6	0.15	4	80	0	0	;
	23	8	13	1880	23	0.9	0.15	4	90	0	0	;
	24	9	4	1529	33	0.8	0.15	4	70	0	0	;
	25	9	8	1277	34	0.5	0.15	4	100	0	0	;
	26	9	10	1557	21	0.9	0.15	4	100	0	0	;
	27	9	14	1093	23	0.8	0.15	4	90	0	0	;
	28	10	5	1335	28	0.9	0.15	4	80	0	0	;
	29	10	9	1854	20	0.7	0.15	4	100	0	0	;
	30	10	15	1575	29	0.9	0.15	4	60	0	0	;
	31	11	6	1428	32	0.9	0.15	4	80	0	0	;
	32	11	12	1027	25	0.5	0.15	4	60	0	0	;
	33	11	16	1373	24	0.7	0.15	4	70	0	0	;
	34	12	7	1599	37	1.0	0.15	4	80	0	0	;
	35	12	11	1584	31	0.7	0.15	4	70	0	0	;
	36	12	13	1800	32	0.7	0.15	4	60	0	0	;
	37	12	17	1142	29	0.9	0.15	4	80	0	0	;
	38	13	8	1501	38	0.6	0.15	4	80	0	0	;
	39	13	12	1274	33	0.6	0.15	4	70	0	0	;
	40	13	14	1459	28	0.9	0.15	4	90	0	0	;
	41	13	18	1396	34	1.0	0.15	4	90	0	0	;
	42	14	9	1939	30	0.5	0.15	4	90	0	0	;
	43	14	13	1312	34	0.9	0.15	4	60	0	0	;
	44	14	15	1812	32	0.8	0.15	4	100	0	0	;
	45	14	19	1066	20	0.8	0.15	4	60	0	0	;
	46	15	10	1968	21	1.0	0.15	4	90	0	0	;
	47	15	14	1819	25	0.8	0.15	4	80	0	0	;
	48	15	20	1204	33	0.6	0.15	4	80	0	0	;
	49	16	11	1226	33	0.9	0.15	4	60	0	0	;
	50	16	17	1432	39	0.9	0.15	4	80	0	0	;
	51	16	21	1670	36	1.0	0.15	4	100	0	0	;
	52	17	12	1636	39	0.6	0.15	4	80	0	0	;
	53	17	16	1708	25	0.6	0.15	4	80	0	0	;
	54	17	18	1149	23	0.9	0.15	4	100	0	0	;
	55	17	22	1933	25	0.9	0.15	4	100	0	0	;
	56	18	13	1505	27	0.6	0.15	4	100	0	0	;
	57	18	17	1448	40	0.7	0.15	4	100	0	0	;
	58	18	19	1942	29	1.0	0.15	4	60	0	0	;
	59	18	23	1335	37	0.6	0.15	4	80	0	0	;
	60	19	14	1653	23	0.5	0.15	4	90	0	0	;
	61	19	18	1653	24	0.7	0.15	4	70	0	0	;
	62	19	20	1081	36	0.6	0.15	4	100	0	0	;
	63	19	24	1507	22	0.9	0.15	4	90	0	0	;
	64	20	15	1177	23	0.9	0.15	4	80	0	0	;
	65	20	19	1667	33	0.9	0.15	4	100	0	0	;
	66	20	25	1342	39	0.8	0.15	4	90	0	0	;
	67	21	16	1689	32	0.6	0.15	4	60	0	0	;
	68	21	22	1396	31	0.7	0.15	4	70	0	0	;
	69	22	17	1924	38	0.7	0.15	4	100	0	0	;
	70	22	21	1297	37	1.0	0.15	4	90	0	0	;
	71	22	23	1766	26	0.6	0.15	4	90	0	0	;
	72	23	18	1817	37	0.9	0.15	4	70	0	0	;
	73	23	22	1613	39	0.8	0.15	4	80	0	0	;
	74	23	24	1398	30	1.0	0.15	4	80	0	0	;
	75	24	19	1646	34	0.6	0.15	4	70	0	0	;
	76	24	23	1961	33	0.8	0.15	4	60	0	0	;
	77	24	25	1462	24	1.0	0.15	4	70	0	0	;
	78	25	20	1872	25	0.6	0.15	4	60	0	0	;
	79	25	24	1978	28	0.7	0.15	4	90	0	0	;
