<NUMBER OF ZONES>  898
<NUMBER OF NODES>  14639
<FIRST THRU NODE>  899
<NUMBER OF LINKS>  33937
<ORIGINAL HEADER>~	from	to	 capacity	Length	Free Flow Time	B	Power	speed limit	Toll	Type	;
<END OF METADATA>
~	link_id	init_node	term_node	capacity	length	free_flow_time	b	power	speed	toll	link_type	;
	1	1	6595	999999	21.784	0.22004040404	1	3	99	0	9	;
	2	2	5983	999999	2.579	0.0260505050505	1	3	99	0	9	;
	3	3	6196	999999	11.426	0.115414141414	1	3	99	0	0	;
	4	3	6236	999999	6.142	0.0620404040404	1	3	99	0	9	;
	5	4	5352	999999	8.233	0.0831616161616	1	3	99	0	9	;
	6	4	6066	999999	19.021	0.192131313131	1	3	99	0	9	;
	7	5	6147	999999	13.044	0.131757575758	1	3	99	0	9	;
	8	6	6223	999999	6.054	0.0611515151515	1	3	99	0	9	;
	9	7	6331	999999	9.339	0.0943333333333	1	3	99	0	0	;
	10	8	6400	999999	56.952	0.575272727273	1	3	99	0	0	;
	11	9	6638	999999	22.948	0.231797979798	1	3	99	0	9	;
	12	10	6577	999999	3.942	0.0398181818182	1	3	99	0	9	;
	13	11	6605	999999	8.265	0.0834848484848	1	3	99	0	9	;
	14	12	6076	999999	3.669	0.0370606060606	1	3	99	0	9	;
	15	13	5332	999999	2.495	0.025202020202	1	3	99	0	9	;
	16	14	5883	999999	7.766	0.0784444444444	1	3	99	0	9	;
	17	15	1468	999999	6.539	0.0660505050505	1	3	99	0	9	;
	18	15	1541	999999	70.255	0.709646464646	1	3	99	0	0	;
	19	16	1265	999999	3.936	0.0397575757576	1	3	99	0	9	;
	20	17	1509	999999	10.352	0.104565656566	1	3	99	0	9	;
	21	17	1845	999999	21.044	0.212565656566	1	3	99	0	9	;
	22	18	1855	999999	0.816	0.00824242424242	1	3	99	0	9	;
	23	19	914	999999	201.948	2.03987878788	1	3	99	0	9	;
	24	20	6080	999999	3.56	0.0359595959596	1	3	99	0	9	;
	25	21	6627	999999	6.679	0.0674646464646	1	3	99	0	9	;
	26	22	6314	999999	8.781	0.088696969697	1	3	99	0	9	;
	27	23	6124	999999	2.038	0.0205858585859	1	3	99	0	9	;
	28	24	955	999999	27.655	0.279343434343	1	3	99	0	9	;
	29	25	2220	999999	4.294	0.0433737373737	1	3	99	0	9	;
	30	26	2419	999999	1.046	0.0105656565657	1	3	99	0	9	;
	31	27	1315	999999	2.385	0.0240909090909	1	3	99	0	9	;
	32	28	1103	999999	4.171	0.0421313131313	1	3	99	0	9	;
	33	29	918	999999	7.017	0.0708787878788	1	3	99	0	9	;
	34	30	1109	999999	6.562	0.0662828282828	1	3	99	0	9	;
	35	31	1023	999999	13.29	0.134242424242	1	3	99	0	9	;
	36	32	1118	999999	4.931	0.0498080808081	1	3	99	0	9	;
	37	33	911	999999	5.705	0.0576262626263	1	3	99	0	9	;
	38	34	1061	999999	13.902	0.140424242424	1	3	99	0	9	;
	39	35	6825	999999	0.324	0.00327272727273	1	3	99	0	3	;
	40	36	14458	999999	0.190001737776	0.00191920947248	1	3	99	0	0	;
	41	37	3985	999999	0.238318341202	0.00240725597173	1	3	99	0	0	;
	42	37	7034	999999	0.140007575861	0.00141421793799	1	3	99	0	0	;
	43	38	6895	999999	0.216	0.00218181818182	1	3	99	0	3	;
	44	39	6872	999999	0.238	0.00240404040404	1	3	99	0	3	;
	45	40	4016	999999	0.548349490134	0.00553888373872	1	3	99	0	0	;
	46	40	14459	999999	0.249997458616	0.00252522685471	1	3	99	0	0	;
	47	41	4115	999999	0.624	0.00630303030303	1	3	99	0	0	;
	48	41	7030	999999	0.683	0.00689898989899	1	3	99	0	0	;
	49	42	4071	999999	0.111	0.00112121212121	1	3	99	0	3	;
	50	42	14457	999999	0.213605228344	0.00215762856913	1	3	99	0	0	;
	51	43	4162	999999	0.452	0.00456565656566	1	3	99	0	0	;
	52	44	7529	999999	0.475	0.00479797979798	1	3	99	0	0	;
	53	44	14469	999999	0.595617172995	0.00601633508076	1	3	99	0	0	;
	54	45	6854	999999	0.043	0.000434343434343	1	3	99	0	3	;
	55	46	3885	999999	0.254	0.00256565656566	1	3	99	0	3	;
	56	47	8686	999999	0.501997139912	0.00507067818093	1	3	99	0	0	;
	57	48	3671	999999	0.187	0.00188888888889	1	3	99	0	3	;
	58	49	3537	999999	0.213	0.00215151515152	1	3	99	0	3	;
	59	50	3710	999999	0.265	0.00267676767677	1	3	99	0	3	;
	60	51	3971	999999	0.049	0.000494949494949	1	3	99	0	3	;
	61	52	4049	999999	0.631826860089	0.00638208949585	1	3	99	0	0	;
	62	52	4102	999999	0.353431682125	0.00357001699116	1	3	99	0	0	;
	63	53	4151	999999	0.027	0.000272727272727	1	3	99	0	3	;
	64	54	4166	999999	0.496	0.0050101010101	1	3	99	0	3	;
	65	55	3993	999999	0.241	0.00243434343434	1	3	99	0	3	;
	66	55	4059	999999	0.483900084656	0.00488787964299	1	3	99	0	0	;
	67	56	4164	999999	0.278393791561	0.00281205850062	1	3	99	0	0	;
	68	57	4064	999999	0.233	0.00235353535354	1	3	99	0	3	;
	69	58	4267	999999	0.085	0.000858585858586	1	3	99	0	3	;
	70	59	3912	999999	0.472	0.00476767676768	1	3	99	0	3	;
	71	60	3887	999999	0.051	0.000515151515152	1	3	99	0	3	;
	72	61	3747	999999	1.0802591518	0.0109117086041	1	3	99	0	0	;
	73	61	3857	999999	0.042	0.000424242424242	1	3	99	0	3	;
	74	61	6945	999999	1.08991317207	0.0110092239603	1	3	99	0	0	;
	75	62	3791	999999	0.201	0.0020303030303	1	3	99	0	3	;
	76	63	8252	999999	0.064	0.000646464646465	1	3	99	0	3	;
	77	64	3612	999999	0.365	0.00368686868687	1	3	99	0	3	;
	78	65	3545	999999	0.323	0.00326262626263	1	3	99	0	3	;
	79	66	3464	999999	0.559	0.00564646464646	1	3	99	0	3	;
	80	67	3994	999999	0.183	0.00184848484848	1	3	99	0	3	;
	81	68	4073	999999	0.437221166636	0.00441637542057	1	3	99	0	0	;
	82	68	4148	999999	0.560441245424	0.00566102268105	1	3	99	0	0	;
	83	69	8068	999999	0.492753939926	0.0049773125245	1	3	99	0	0	;
	84	69	14456	999999	0.0617571412245	0.000623809507318	1	3	99	0	0	;
	85	70	14455	999999	0.588431257026	0.00594375007097	1	3	99	0	0	;
	86	71	7999	999999	0.11	0.00111111111111	1	3	99	0	3	;
	87	72	3647	999999	0.253	0.00255555555556	1	3	99	0	3	;
	88	73	8317	999999	0.33	0.00333333333333	1	3	99	0	3	;
	89	74	4346	999999	0.415544152045	0.00419741567722	1	3	99	0	0	;
	90	75	7627	999999	0.546	0.00551515151515	1	3	99	0	3	;
	91	76	8318	999999	0.425	0.00429292929293	1	3	99	0	3	;
	92	77	14475	999999	0.445643748784	0.00450145200792	1	3	99	0	0	;
	93	78	7365	999999	0.096	0.000969696969697	1	3	99	0	3	;
	94	79	8295	999999	0.262	0.00264646464646	1	3	99	0	3	;
	95	80	4621	999999	0.205	0.00207070707071	1	3	99	0	3	;
	96	81	4499	999999	0.275	0.00277777777778	1	3	99	0	3	;
	97	82	8281	999999	0.381	0.00384848484848	1	3	99	0	3	;
	98	83	8281	999999	0.212	0.00214141414141	1	3	99	0	3	;
	99	84	8304	999999	0.226	0.00228282828283	1	3	99	0	3	;
	100	85	7355	999999	0.119	0.00120202020202	1	3	99	0	3	;
	101	86	8288	999999	0.356	0.00359595959596	1	3	99	0	3	;
	102	87	4718	999999	0.336	0.00339393939394	1	3	99	0	3	;
	103	88	4718	999999	0.231	0.00233333333333	1	3	99	0	3	;
	104	89	8236	999999	0.488	0.00492929292929	1	3	99	0	3	;
	105	90	4861	999999	0.173	0.00174747474747	1	3	99	0	3	;
	106	91	8085	999999	0.09	0.000909090909091	1	3	99	0	3	;
	107	92	4751	999999	0.057	0.000575757575758	1	3	99	0	3	;
	108	93	7636	999999	0.188	0.00189898989899	1	3	99	0	3	;
	109	94	4576	999999	0.099	0.001	1	3	99	0	3	;
	110	95	14474	999999	0.428282709072	0.00432608797042	1	3	99	0	0	;
	111	96	7621	999999	0.285314738491	0.00288196705546	1	3	99	0	0	;
	112	96	14473	999999	0.655881013865	0.00662506074611	1	3	99	0	0	;
	113	97	7546	999999	0.214	0.00216161616162	1	3	99	0	3	;
	114	98	7578	999999	0.155	0.00156565656566	1	3	99	0	3	;
	115	99	8119	999999	0.258	0.00260606060606	1	3	99	0	3	;
	116	100	4868	999999	0.309	0.00312121212121	1	3	99	0	3	;
	117	101	8089	999999	0.429	0.00433333333333	1	3	99	0	3	;
	118	102	4930	999999	0.588	0.00593939393939	1	3	99	0	3	;
	119	103	4765	999999	0.433	0.00437373737374	1	3	99	0	3	;
	120	104	4769	999999	0.397	0.0040101010101	1	3	99	0	3	;
	121	104	8127	999999	0.409	0.00413131313131	1	3	99	0	0	;
	122	105	8233	999999	0.502	0.00507070707071	1	3	99	0	3	;
	123	106	8130	999999	0.513096071048	0.00518278859645	1	3	99	0	0	;
	124	106	14472	999999	0.637260957309	0.00643697936676	1	3	99	0	0	;
	125	107	4704	999999	0.477	0.00481818181818	1	3	99	0	0	;
	126	107	7660	999999	0.466	0.00470707070707	1	3	99	0	0	;
	127	108	4649	999999	0.164	0.00165656565657	1	3	99	0	0	;
	128	108	4709	999999	0.513	0.00518181818182	1	3	99	0	0	;
	129	109	14053	999999	0.407943026819	0.00412063663454	1	3	99	0	0	;
	130	109	14080	999999	0.49931818544	0.00504361803475	1	3	99	0	0	;
	131	110	7539	999999	0.18	0.00181818181818	1	3	99	0	3	;
	132	111	4479	999999	0.396794855158	0.00400802883998	1	3	99	0	0	;
	133	111	7527	999999	0.524	0.00529292929293	1	3	99	0	9	;
	134	111	7558	999999	0.622	0.00628282828283	1	3	99	0	9	;
	135	112	7664	999999	0.363	0.00366666666667	1	3	99	0	0	;
	136	112	12572	999999	0.126	0.00127272727273	1	3	99	0	0	;
	137	113	4637	999999	0.709	0.00716161616162	1	3	99	0	0	;
	138	113	12573	999999	0.307	0.00310101010101	1	3	99	0	0	;
	139	114	4446	999999	0.305801759946	0.00308890666612	1	3	99	0	0	;
	140	114	7453	999999	0.261568411391	0.00264210516557	1	3	99	0	0	;
	141	114	14027	999999	0.066	0.000666666666667	1	3	99	0	0	;
	142	115	14471	999999	0.240944036687	0.00243377814835	1	3	99	0	0	;
	143	116	4638	999999	0.573	0.00578787878788	1	3	99	0	0	;
	144	116	4664	999999	0.265	0.00267676767677	1	3	99	0	0	;
	145	117	4632	999999	0.752	0.00759595959596	1	3	99	0	0	;
	146	117	4697	999999	0.164	0.00165656565657	1	3	99	0	3	;
	147	118	4587	999999	0.345	0.00348484848485	1	3	99	0	0	;
	148	118	14302	999999	0.397	0.0040101010101	1	3	99	0	0	;
	149	119	7777	999999	0.84	0.00848484848485	1	3	99	0	9	;
	150	120	14006	999999	0.293	0.0029595959596	1	3	99	0	0	;
	151	120	14193	999999	0.302	0.00305050505051	1	3	99	0	0	;
	152	121	4501	999999	0.561624168845	0.00567297140248	1	3	99	0	0	;
	153	121	4529	999999	0.302	0.00305050505051	1	3	99	0	3	;
	154	122	8681	999999	0.426	0.00430303030303	1	3	99	0	3	;
	155	123	12496	999999	0.395	0.0039898989899	1	3	99	0	9	;
	156	124	8078	999999	0.21	0.00212121212121	1	3	99	0	3	;
	157	125	4839	999999	0.197	0.0019898989899	1	3	99	0	3	;
	158	126	8653	999999	0.451	0.00455555555556	1	3	99	0	3	;
	159	127	7804	999999	1.207	0.0121919191919	1	3	99	0	9	;
	160	127	7817	999999	1.05	0.0106060606061	1	3	99	0	9	;
	161	127	7856	999999	0.351	0.00354545454545	1	3	99	0	3	;
	162	128	7846	999999	0.171	0.00172727272727	1	3	99	0	3	;
	163	129	7844	999999	0.365	0.00368686868687	1	3	99	0	3	;
	164	130	5028	999999	0.15	0.00151515151515	1	3	99	0	3	;
	165	131	5024	999999	0.211	0.00213131313131	1	3	99	0	3	;
	166	132	4722	999999	0.460215971369	0.00464864617544	1	3	99	0	0	;
	167	133	4732	999999	0.007	7.07070707071e-005	1	3	99	0	3	;
	168	134	8051	999999	0.176	0.00177777777778	1	3	99	0	3	;
	169	135	8674	999999	0.279	0.00281818181818	1	3	99	0	3	;
	170	136	4853	999999	0.223	0.00225252525253	1	3	99	0	3	;
	171	137	4692	999999	0.11	0.00111111111111	1	3	99	0	3	;
	172	138	8063	999999	0.073	0.000737373737374	1	3	99	0	3	;
	173	138	8669	999999	0.424217932167	0.00428502961785	1	3	99	0	0	;
	174	139	8046	999999	0.387	0.00390909090909	1	3	99	0	9	;
	175	140	12484	999999	0.247	0.00249494949495	1	3	99	0	9	;
	176	141	4666	999999	0.288	0.00290909090909	1	3	99	0	3	;
	177	142	12547	999999	0.815	0.00823232323232	1	3	99	0	9	;
	178	142	14466	999999	0.49473733619	0.0049973468302	1	3	99	0	0	;
	179	142	14467	999999	0.746152109924	0.00753688999923	1	3	99	0	0	;
	180	143	4237	999999	0.205	0.00207070707071	1	3	99	0	3	;
	181	144	4179	999999	0.074	0.000747474747475	1	3	99	0	3	;
	182	145	7941	999999	0.18	0.00181818181818	1	3	99	0	3	;
	183	146	7932	999999	0.15	0.00151515151515	1	3	99	0	3	;
	184	147	4173	999999	0.158	0.00159595959596	1	3	99	0	3	;
	185	148	7954	999999	0.098	0.000989898989899	1	3	99	0	3	;
	186	149	3962	999999	0.463	0.00467676767677	1	3	99	0	3	;
	187	150	7965	999999	0.016	0.000161616161616	1	3	99	0	3	;
	188	151	4359	999999	0.602	0.00608080808081	1	3	99	0	0	;
	189	151	4417	999999	0.224	0.00226262626263	1	3	99	0	3	;
	190	152	7973	999999	0.298	0.0030101010101	1	3	99	0	3	;
	191	153	4243	999999	0.273	0.00275757575758	1	3	99	0	3	;
	192	153	4281	999999	0.56308038114	0.00568768061758	1	3	99	0	0	;
	193	153	14468	999999	0.141113101691	0.00142538486557	1	3	99	0	0	;
	194	154	4534	999999	0.464	0.00468686868687	1	3	99	0	9	;
	195	155	4505	999999	0.101	0.0010202020202	1	3	99	0	0	;
	196	155	8055	999999	0.562	0.00567676767677	1	3	99	0	0	;
	197	156	7929	999999	0.038	0.000383838383838	1	3	99	0	0	;
	198	157	4276	999999	0.329105277957	0.00332429573694	1	3	99	0	0	;
	199	158	4296	999999	0.396	0.004	1	3	99	0	0	;
	200	158	7908	999999	0.715878126763	0.00723109218953	1	3	99	0	0	;
	201	159	4125	999999	0.41	0.00414141414141	1	3	99	0	0	;
	202	160	14460	999999	0.395713304552	0.00399710408638	1	3	99	0	0	;
	203	161	7073	999999	0.189	0.00190909090909	1	3	99	0	0	;
	204	161	14153	999999	0.366	0.00369696969697	1	3	99	0	0	;
	205	162	4292	999999	0.169	0.00170707070707	1	3	99	0	0	;
	206	162	13851	999999	0.195	0.0019696969697	1	3	99	0	0	;
	207	163	4309	999999	0.251	0.00253535353535	1	3	99	0	0	;
	208	163	4352	999999	0.246	0.00248484848485	1	3	99	0	0	;
	209	163	7500	999999	0.183	0.00184848484848	1	3	99	0	0	;
	210	163	7503	999999	0.441930960628	0.00446394909725	1	3	99	0	0	;
	211	163	13883	999999	0.386343716846	0.00390246178633	1	3	99	0	0	;
	212	163	14222	999999	0.336155205683	0.00339550712811	1	3	99	0	0	;
	213	164	4372	999999	0.325341501484	0.00328627779276	1	3	99	0	0	;
	214	164	7474	999999	0.524770344308	0.00530071054856	1	3	99	0	0	;
	215	164	7478	999999	0.264914105454	0.00267590005509	1	3	99	0	0	;
	216	164	14074	999999	0.19353535395	0.00195490256515	1	3	99	0	0	;
	217	165	7081	999999	0.32386008127	0.00327131395223	1	3	99	0	0	;
	218	166	3955	999999	0.366	0.00369696969697	1	3	99	0	0	;
	219	167	5126	999999	0.521	0.00526262626263	1	3	99	0	9	;
	220	167	12532	999999	0.608	0.00614141414141	1	3	99	0	9	;
	221	168	8156	999999	0.192	0.00193939393939	1	3	99	0	3	;
	222	169	8153	999999	0.557	0.00562626262626	1	3	99	0	3	;
	223	170	8164	999999	0.244	0.00246464646465	1	3	99	0	3	;
	224	171	8160	999999	0.407	0.00411111111111	1	3	99	0	9	;
	225	172	7324	999999	0.133	0.00134343434343	1	3	99	0	3	;
	226	173	12577	999999	0.363	0.00366666666667	1	3	99	0	9	;
	227	173	12578	999999	0.437	0.00441414141414	1	3	99	0	9	;
	228	174	4180	999999	0.346	0.00349494949495	1	3	99	0	3	;
	229	174	4190	999999	0.672	0.00678787878788	1	3	99	0	0	;
	230	175	4111	999999	0.29	0.00292929292929	1	3	99	0	3	;
	231	175	4187	999999	0.617	0.00623232323232	1	3	99	0	0	;
	232	176	14461	999999	0.165977624204	0.00167654165863	1	3	99	0	0	;
	233	176	14463	999999	0.408603297818	0.00412730603857	1	3	99	0	0	;
	234	177	4914	999999	0.248	0.00250505050505	1	3	99	0	3	;
	235	178	5002	999999	0.057	0.000575757575758	1	3	99	0	3	;
	236	179	4903	999999	0.202	0.0020404040404	1	3	99	0	3	;
	237	180	5004	999999	0.429	0.00433333333333	1	3	99	0	3	;
	238	181	8149	999999	0.304	0.00307070707071	1	3	99	0	3	;
	239	182	4554	999999	0.557	0.00562626262626	1	3	99	0	0	;
	240	182	7549	999999	0.359602324841	0.00363234671557	1	3	99	0	0	;
	241	183	8235	999999	0.026	0.000262626262626	1	3	99	0	3	;
	242	184	7639	999999	0.304	0.00307070707071	1	3	99	0	0	;
	243	185	4554	999999	0.474	0.00478787878788	1	3	99	0	0	;
	244	185	4613	999999	0.182	0.00183838383838	1	3	99	0	0	;
	245	186	8415	999999	0.153	0.00154545454545	1	3	99	0	3	;
	246	187	4377	999999	0.281	0.00283838383838	1	3	99	0	3	;
	247	188	4312	999999	0.077	0.000777777777778	1	3	99	0	3	;
	248	189	8377	999999	0.413	0.00417171717172	1	3	99	0	9	;
	249	190	4379	999999	0.048	0.000484848484848	1	3	99	0	3	;
	250	191	4433	999999	0.436	0.00440404040404	1	3	99	0	3	;
	251	192	8047	999999	0.544	0.00549494949495	1	3	99	0	3	;
	252	193	8496	999999	0.318	0.00321212121212	1	3	99	0	3	;
	253	194	8660	999999	0.111	0.00112121212121	1	3	99	0	3	;
	254	195	4531	999999	0.133	0.00134343434343	1	3	99	0	3	;
	255	196	4833	999999	0.313	0.00316161616162	1	3	99	0	3	;
	256	197	8652	999999	0.62	0.00626262626263	1	3	99	0	9	;
	257	198	8490	999999	0.113	0.00114141414141	1	3	99	0	3	;
	258	199	8491	999999	0.802	0.00810101010101	1	3	99	0	9	;
	259	199	8494	999999	0.378	0.00381818181818	1	3	99	0	9	;
	260	199	8655	999999	0.22	0.00222222222222	1	3	99	0	3	;
	261	200	4508	999999	0.21	0.00212121212121	1	3	99	0	3	;
	262	201	14477	999999	0.782983987239	0.00790892916403	1	3	99	0	0	;
	263	202	8651	999999	0.208	0.00210101010101	1	3	99	0	3	;
	264	203	8618	999999	1.147	0.0115858585859	1	3	99	0	9	;
	265	203	8619	999999	0.222798926469	0.00225049420676	1	3	99	0	0	;
	266	204	4796	999999	1.071	0.0108181818182	1	3	99	0	3	;
	267	205	12504	999999	0.368	0.00371717171717	1	3	99	0	9	;
	268	206	4858	999999	0.09	0.000909090909091	1	3	99	0	3	;
	269	207	8229	999999	0.395	0.0039898989899	1	3	99	0	3	;
	270	208	5101	999999	0.35	0.00353535353535	1	3	99	0	3	;
	271	209	7348	999999	0.14	0.00141414141414	1	3	99	0	3	;
	272	210	8217	999999	0.258	0.00260606060606	1	3	99	0	3	;
	273	211	7344	999999	0.08	0.000808080808081	1	3	99	0	3	;
	274	212	12506	999999	0.792	0.008	1	3	99	0	9	;
	275	213	4832	999999	0.787	0.00794949494949	1	3	99	0	0	;
	276	213	8598	999999	0.533	0.00538383838384	1	3	99	0	0	;
	277	214	4939	999999	0.487	0.00491919191919	1	3	99	0	9	;
	278	214	4976	999999	0.07	0.000707070707071	1	3	99	0	3	;
	279	215	8543	999999	0.351	0.00354545454545	1	3	99	0	3	;
	280	216	8553	999999	0.594	0.006	1	3	99	0	3	;
	281	217	7327	999999	1.64931036578	0.0166597006644	1	3	99	0	0	;
	282	217	12444	999999	0.651748994848	0.00658332318029	1	3	99	0	0	;
	283	218	12498	999999	0.314	0.00317171717172	1	3	99	0	9	;
	284	219	4923	999999	0.327	0.00330303030303	1	3	99	0	3	;
	285	220	4910	999999	0.22	0.00222222222222	1	3	99	0	3	;
	286	221	5498	999999	0.009	9.09090909091e-005	1	3	99	0	3	;
	287	222	9246	999999	0.578941202848	0.00584789093786	1	3	99	0	0	;
	288	222	9294	999999	0.484312834267	0.00489204883098	1	3	99	0	0	;
	289	223	5454	999999	0.542	0.00547474747475	1	3	99	0	3	;
	290	224	5437	999999	0.345	0.00348484848485	1	3	99	0	3	;
	291	225	5516	999999	0.112	0.00113131313131	1	3	99	0	3	;
	292	226	12584	999999	0.423	0.00427272727273	1	3	99	0	9	;
	293	226	12585	999999	0.45	0.00454545454545	1	3	99	0	9	;
	294	227	5558	999999	0.639	0.00645454545455	1	3	99	0	3	;
	295	228	5545	999999	0.21	0.00212121212121	1	3	99	0	3	;
	296	229	9256	999999	0.846	0.00854545454545	1	3	99	0	9	;
	297	229	9257	999999	0.392	0.0039595959596	1	3	99	0	3	;
	298	230	9160	999999	0.317	0.00320202020202	1	3	99	0	3	;
	299	231	5535	999999	0.223	0.00225252525253	1	3	99	0	3	;
	300	232	5621	999999	0.39	0.00393939393939	1	3	99	0	9	;
	301	232	8710	999999	1.058	0.0106868686869	1	3	99	0	9	;
	302	233	5601	999999	0.445	0.00449494949495	1	3	99	0	3	;
	303	233	9110	999999	0.632	0.00638383838384	1	3	99	0	9	;
	304	234	5421	999999	0.432	0.00436363636364	1	3	99	0	3	;
	305	235	5435	999999	0.174	0.00175757575758	1	3	99	0	3	;
	306	236	5452	999999	0.352	0.00355555555556	1	3	99	0	3	;
	307	237	5493	999999	0.274	0.00276767676768	1	3	99	0	9	;
	308	238	5508	999999	0.188	0.00189898989899	1	3	99	0	3	;
	309	239	5543	999999	0.075	0.000757575757576	1	3	99	0	3	;
	310	240	5660	999999	0.621	0.00627272727273	1	3	99	0	9	;
	311	240	9222	999999	0.19	0.00191919191919	1	3	99	0	9	;
	312	241	9102	999999	0.185	0.00186868686869	1	3	99	0	3	;
	313	242	5579	999999	0.213	0.00215151515152	1	3	99	0	3	;
	314	243	8878	999999	0.562	0.00567676767677	1	3	99	0	9	;
	315	244	5603	999999	0.197	0.0019898989899	1	3	99	0	9	;
	316	245	5729	999999	0.275	0.00277777777778	1	3	99	0	3	;
	317	246	5675	999999	0.486	0.00490909090909	1	3	99	0	9	;
	318	247	9199	999999	0.355	0.00358585858586	1	3	99	0	3	;
	319	248	5792	999999	0.355160494994	0.00358747974742	1	3	99	0	0	;
	320	248	14322	999999	0.42985472152	0.00434196688404	1	3	99	0	0	;
	321	249	5420	999999	0.758	0.00765656565657	1	3	99	0	3	;
	322	250	9068	999999	0.556	0.00561616161616	1	3	99	0	3	;
	323	251	12270	999999	2.015	0.0203535353535	1	3	99	0	9	;
	324	252	12583	999999	0.267	0.00269696969697	1	3	99	0	9	;
	325	253	9050	999999	0.645	0.00651515151515	1	3	99	0	9	;
	326	254	9058	999999	0.026	0.000262626262626	1	3	99	0	3	;
	327	255	5903	999999	0.333	0.00336363636364	1	3	99	0	3	;
	328	256	5843	999999	0.194	0.0019595959596	1	3	99	0	3	;
	329	257	14323	999999	0.249506787376	0.00252027057955	1	3	99	0	0	;
	330	258	9197	999999	0.327	0.00330303030303	1	3	99	0	9	;
	331	259	12260	999999	0.115	0.00116161616162	1	3	99	0	3	;
	332	260	5933	999999	0.753	0.00760606060606	1	3	99	0	0	;
	333	261	5953	999999	0.253	0.00255555555556	1	3	99	0	3	;
	334	261	8952	999999	0.502	0.00507070707071	1	3	99	0	9	;
	335	262	9189	999999	0.262	0.00264646464646	1	3	99	0	3	;
	336	263	9191	999999	0.159216441141	0.00160824688021	1	3	99	0	0	;
	337	264	5779	999999	0.069	0.00069696969697	1	3	99	0	3	;
	338	265	5730	999999	0.256	0.00258585858586	1	3	99	0	3	;
	339	266	5782	999999	0.157	0.00158585858586	1	3	99	0	3	;
	340	267	5760	999999	0.313	0.00316161616162	1	3	99	0	9	;
	341	268	5697	999999	0.423	0.00427272727273	1	3	99	0	9	;
	342	268	5709	999999	0.31	0.00313131313131	1	3	99	0	9	;
	343	268	5753	999999	0.481	0.00485858585859	1	3	99	0	9	;
	344	268	8913	999999	0.384	0.00387878787879	1	3	99	0	9	;
	345	268	9353	999999	0.361	0.00364646464646	1	3	99	0	9	;
	346	268	9362	999999	0.379	0.00382828282828	1	3	99	0	9	;
	347	269	5769	999999	0.183	0.00184848484848	1	3	99	0	9	;
	348	270	5785	999999	0.211	0.00213131313131	1	3	99	0	3	;
	349	271	5833	999999	0.668	0.00674747474747	1	3	99	0	9	;
	350	272	5938	999999	0.245	0.00247474747475	1	3	99	0	3	;
	351	273	5925	999999	0.416	0.00420202020202	1	3	99	0	3	;
	352	273	8862	999999	0.7	0.00707070707071	1	3	99	0	0	;
	353	274	5959	999999	0.162	0.00163636363636	1	3	99	0	3	;
	354	274	8936	999999	0.26	0.00262626262626	1	3	99	0	9	;
	355	275	5914	999999	0.29	0.00292929292929	1	3	99	0	3	;
	356	276	5916	999999	0.225	0.00227272727273	1	3	99	0	3	;
	357	277	8930	999999	0.298	0.0030101010101	1	3	99	0	0	;
	358	277	9166	999999	0.437	0.00441414141414	1	3	99	0	0	;
	359	278	5951	999999	0.064	0.000646464646465	1	3	99	0	3	;
	360	279	5939	999999	0.386	0.00389898989899	1	3	99	0	3	;
	361	280	8784	999999	0.603	0.00609090909091	1	3	99	0	9	;
	362	281	5812	999999	0.222	0.00224242424242	1	3	99	0	3	;
	363	282	5846	999999	0.507	0.00512121212121	1	3	99	0	3	;
	364	283	8865	999999	0.243	0.00245454545455	1	3	99	0	3	;
	365	284	12473	999999	0.402	0.00406060606061	1	3	99	0	0	;
	366	284	13762	999999	0.231	0.00233333333333	1	3	99	0	0	;
	367	285	13774	999999	0.297	0.003	1	3	99	0	0	;
	368	285	13778	999999	0.299	0.0030202020202	1	3	99	0	0	;
	369	286	13769	999999	0.567	0.00572727272727	1	3	99	0	0	;
	370	286	13770	999999	0.375	0.00378787878788	1	3	99	0	0	;
	371	287	5773	999999	0.437	0.00441414141414	1	3	99	0	0	;
	372	287	8856	999999	0.521	0.00526262626263	1	3	99	0	0	;
	373	288	5689	999999	0.938	0.00947474747475	1	3	99	0	9	;
	374	288	9039	999999	0.814	0.00822222222222	1	3	99	0	9	;
	375	289	2423	999999	0.889	0.0089797979798	1	3	99	0	9	;
	376	289	10794	999999	0.66	0.00666666666667	1	3	99	0	3	;
	377	290	2267	999999	0.14	0.00141414141414	1	3	99	0	3	;
	378	291	2240	999999	0.21	0.00212121212121	1	3	99	0	3	;
	379	292	2410	999999	0.701	0.00708080808081	1	3	99	0	9	;
	380	293	10785	999999	0.407	0.00411111111111	1	3	99	0	3	;
	381	294	2543	999999	0.084	0.000848484848485	1	3	99	0	3	;
	382	295	2586	999999	0.415	0.00419191919192	1	3	99	0	9	;
	383	296	10782	999999	0.174	0.00175757575758	1	3	99	0	3	;
	384	297	2740	999999	0.056	0.000565656565657	1	3	99	0	3	;
	385	298	2273	999999	0.298	0.0030101010101	1	3	99	0	3	;
	386	299	2253	999999	0.111	0.00112121212121	1	3	99	0	3	;
	387	300	2352	999999	0.3	0.0030303030303	1	3	99	0	3	;
	388	301	2391	999999	0.825	0.00833333333333	1	3	99	0	9	;
	389	301	2403	999999	0.1	0.0010101010101	1	3	99	0	3	;
	390	302	2578	999999	0.177	0.00178787878788	1	3	99	0	3	;
	391	303	2576	999999	0.286	0.00288888888889	1	3	99	0	3	;
	392	304	10667	999999	0.185	0.00186868686869	1	3	99	0	3	;
	393	305	2821	999999	0.476	0.00480808080808	1	3	99	0	9	;
	394	306	10801	999999	0.156	0.00157575757576	1	3	99	0	3	;
	395	307	2916	999999	0.345	0.00348484848485	1	3	99	0	3	;
	396	308	3055	999999	0.062	0.000626262626263	1	3	99	0	3	;
	397	309	3024	999999	0.53	0.00535353535354	1	3	99	0	9	;
	398	310	3122	999999	0.1	0.0010101010101	1	3	99	0	3	;
	399	311	3239	999999	0.03	0.00030303030303	1	3	99	0	3	;
	400	312	10811	999999	0.169	0.00170707070707	1	3	99	0	3	;
	401	313	10895	999999	0.182	0.00183838383838	1	3	99	0	3	;
	402	314	3380	999999	0.088	0.000888888888889	1	3	99	0	3	;
	403	315	10883	999999	0.204	0.00206060606061	1	3	99	0	3	;
	404	316	10846	999999	0.514	0.00519191919192	1	3	99	0	9	;
	405	317	10847	999999	0.989	0.0099898989899	1	3	99	0	9	;
	406	318	10908	999999	0.0245834218149	0.00024831739207	1	3	99	0	0	;
	407	319	10926	999999	0.319	0.00322222222222	1	3	99	0	3	;
	408	320	6768	999999	0.374504527638	0.00378287401655	1	3	99	0	0	;
	409	321	3061	999999	0.206161077388	0.00208243512513	1	3	99	0	0	;
	410	322	2390	999999	0.479	0.00483838383838	1	3	99	0	3	;
	411	323	2580	999999	0.154	0.00155555555556	1	3	99	0	3	;
	412	324	10654	999999	0.364	0.00367676767677	1	3	99	0	9	;
	413	324	10659	999999	0.311	0.00314141414141	1	3	99	0	9	;
	414	324	10673	999999	0.231544854253	0.00233883691165	1	3	99	0	0	;
	415	325	10648	999999	0.046	0.000464646464646	1	3	99	0	3	;
	416	326	10681	999999	0.403	0.00407070707071	1	3	99	0	9	;
	417	327	2477	999999	0.295	0.0029797979798	1	3	99	0	3	;
	418	328	10726	999999	0.347	0.00350505050505	1	3	99	0	3	;
	419	329	2279	999999	0.073	0.000737373737374	1	3	99	0	3	;
	420	330	2336	999999	0.647	0.00653535353535	1	3	99	0	3	;
	421	331	10738	999999	0.114	0.00115151515152	1	3	99	0	3	;
	422	332	12568	999999	0.734	0.00741414141414	1	3	99	0	9	;
	423	333	12569	999999	0.296	0.0029898989899	1	3	99	0	9	;
	424	334	2747	999999	0.281	0.00283838383838	1	3	99	0	3	;
	425	335	10605	999999	0.518	0.00523232323232	1	3	99	0	3	;
	426	336	2942	999999	0.285	0.00287878787879	1	3	99	0	3	;
	427	337	2451	999999	0.148	0.00149494949495	1	3	99	0	3	;
	428	338	2534	999999	0.106	0.00107070707071	1	3	99	0	3	;
	429	339	10712	999999	0.359	0.00362626262626	1	3	99	0	3	;
	430	340	10559	999999	0.273	0.00275757575758	1	3	99	0	3	;
	431	341	2535	999999	0.168	0.00169696969697	1	3	99	0	3	;
	432	342	2577	999999	0.527	0.00532323232323	1	3	99	0	3	;
	433	343	2663	999999	0.181	0.00182828282828	1	3	99	0	3	;
	434	344	2784	999999	0.25	0.00252525252525	1	3	99	0	3	;
	435	345	2843	999999	0.124	0.00125252525253	1	3	99	0	3	;
	436	346	10530	999999	0.182	0.00183838383838	1	3	99	0	3	;
	437	347	10527	999999	0.139	0.00140404040404	1	3	99	0	3	;
	438	348	10944	999999	0.349	0.00352525252525	1	3	99	0	3	;
	439	349	2729	999999	0.128	0.00129292929293	1	3	99	0	3	;
	440	350	6767	999999	0.176299377934	0.00178080179731	1	3	99	0	0	;
	441	351	10579	999999	0.374	0.00377777777778	1	3	99	0	9	;
	442	352	2828	999999	0.270430933104	0.00273162558691	1	3	99	0	0	;
	443	353	2977	999999	0.052	0.000525252525253	1	3	99	0	3	;
	444	354	2934	999999	0.452	0.00456565656566	1	3	99	0	3	;
	445	355	2946	999999	0.233	0.00235353535354	1	3	99	0	0	;
	446	356	3021	999999	0.485	0.00489898989899	1	3	99	0	9	;
	447	357	3037	999999	0.299	0.0030202020202	1	3	99	0	3	;
	448	358	2246	999999	0.136	0.00137373737374	1	3	99	0	3	;
	449	358	10746	999999	0.849	0.00857575757576	1	3	99	0	9	;
	450	359	2337	999999	0.318	0.00321212121212	1	3	99	0	3	;
	451	360	2335	999999	0.149	0.00150505050505	1	3	99	0	3	;
	452	361	3126	999999	0.292	0.00294949494949	1	3	99	0	3	;
	453	362	12553	999999	0.897551406849	0.00906617582675	1	3	99	0	9	;
	454	363	3128	999999	0.126	0.00127272727273	1	3	99	0	3	;
	455	364	12523	999999	0.286	0.00288888888889	1	3	99	0	9	;
	456	365	9576	999999	0.648579610286	0.00655130919481	1	3	99	0	9	;
	457	366	12527	999999	0.523829800752	0.00529121010861	1	3	99	0	9	;
	458	367	3463	999999	0.357276996179	0.00360885854726	1	3	99	0	9	;
	459	368	3318	999999	0.362919504031	0.00366585357607	1	3	99	0	3	;
	460	369	3172	999999	0.256	0.00258585858586	1	3	99	0	3	;
	461	370	14449	999999	0.416474737793	0.00420681553327	1	3	99	0	0	;
	462	371	9944	999999	0.678681586187	0.00685536955745	1	3	99	0	9	;
	463	372	3260	999999	0.112490821563	0.00113627092488	1	3	99	0	3	;
	464	373	9894	999999	0.229	0.00231313131313	1	3	99	0	3	;
	465	374	3159	999999	0.37	0.00373737373737	1	3	99	0	3	;
	466	375	3134	999999	0.624359137061	0.00630665795011	1	3	99	0	0	;
	467	375	6723	999999	0.257	0.00259595959596	1	3	99	0	3	;
	468	376	9910	999999	0.640034377128	0.00646499370837	1	3	99	0	0	;
	469	376	14448	999999	0.602346464585	0.00608430772308	1	3	99	0	0	;
	470	377	3418	999999	0.307	0.00310101010101	1	3	99	0	3	;
	471	378	9634	999999	0.238	0.00240404040404	1	3	99	0	3	;
	472	379	14395	999999	0.600692282745	0.00606759881561	1	3	99	0	0	;
	473	379	14403	999999	0.0545745771558	0.000551258355109	1	3	99	0	0	;
	474	380	9696	999999	0.246	0.00248484848485	1	3	99	0	3	;
	475	381	3500	999999	0.315506648603	0.00318693584447	1	3	99	0	0	;
	476	381	14442	999999	0.608084708638	0.00614226978422	1	3	99	0	0	;
	477	381	14447	999999	0.439582370051	0.00444022596011	1	3	99	0	0	;
	478	382	3558	999999	0.702	0.00709090909091	1	3	99	0	9	;
	479	383	3646	999999	0.267944050698	0.00270650556261	1	3	99	0	0	;
	480	383	9918	999999	0.963	0.00972727272727	1	3	99	0	9	;
	481	384	3928	999999	0.595	0.0060101010101	1	3	99	0	9	;
	482	385	12519	999999	0.151127146795	0.00152653683631	1	3	99	0	0	;
	483	385	14464	999999	0.313616568022	0.00316784412144	1	3	99	0	0	;
	484	385	14465	999999	0.882638829118	0.00891554372846	1	3	99	0	0	;
	485	386	12487	999999	0.196	0.0019797979798	1	3	99	0	9	;
	486	387	12521	999999	0.446	0.00450505050505	1	3	99	0	9	;
	487	388	12520	999999	0.083	0.000838383838384	1	3	99	0	9	;
	488	389	4086	999999	0.212	0.00214141414141	1	3	99	0	3	;
	489	390	14450	999999	0.128195017842	0.00129489917012	1	3	99	0	0	;
	490	391	3584	999999	0.172	0.00173737373737	1	3	99	0	3	;
	491	392	3641	999999	0.224	0.00226262626263	1	3	99	0	3	;
	492	393	9939	999999	0.20049761962	0.00202522848101	1	3	99	0	3	;
	493	394	6715	999999	0.728207143972	0.00735562771688	1	3	99	0	9	;
	494	395	9592	999999	0.280067169081	0.00282896130385	1	3	99	0	0	;
	495	396	10881	999999	0.977	0.00986868686869	1	3	99	0	9	;
	496	397	3459	999999	0.401	0.00405050505051	1	3	99	0	3	;
	497	398	3447	999999	0.079	0.00079797979798	1	3	99	0	3	;
	498	399	9790	999999	0.38	0.00383838383838	1	3	99	0	3	;
	499	400	3598	999999	0.031	0.000313131313131	1	3	99	0	3	;
	500	401	9757	999999	0.236	0.00238383838384	1	3	99	0	3	;
	501	402	3501	999999	0.067	0.000676767676768	1	3	99	0	3	;
	502	403	3618	999999	0.195	0.0019696969697	1	3	99	0	3	;
	503	404	9758	999999	0.152	0.00153535353535	1	3	99	0	3	;
	504	405	3821	999999	0.222	0.00224242424242	1	3	99	0	3	;
	505	406	3824	999999	0.346	0.00349494949495	1	3	99	0	9	;
	506	407	9765	999999	0.226	0.00228282828283	1	3	99	0	3	;
	507	408	3811	999999	0.037	0.000373737373737	1	3	99	0	3	;
	508	409	3910	999999	0.136	0.00137373737374	1	3	99	0	3	;
	509	410	9438	999999	0.167	0.00168686868687	1	3	99	0	3	;
	510	411	3865	999999	0.321	0.00324242424242	1	3	99	0	3	;
	511	412	3986	999999	0.219	0.00221212121212	1	3	99	0	3	;